28

 C    0.02063558      1.50889305     -1.27016119    
 C   -1.23296995      0.95113439     -1.51363647    
 C   -1.33659613     -0.24866702     -2.21464238    
 C   -0.18723288     -0.88937438     -2.67502144    
 C    1.06649827     -0.32648604     -2.43746812    
 C    1.17070967      0.87371011     -1.73620976    
 C   -1.98035814      0.40288525      1.99512908    
 C   -0.77323224      1.05107678      2.20047255    
 C    0.41213850      0.42631646      1.77852002    
 C    1.79257222      0.78092484      1.81317458    
 C    2.48684631     -0.25404313      1.22910533    
 C    0.32783128     -0.84991770      1.15564915    
 C   -0.88675719     -1.50828144      0.95446763    
 C   -2.03757566     -0.86473592      1.38141834    
 H   -2.12339091      1.44248360     -1.14679424    
 H   -0.74344333      2.02141298      2.67938308    
 H   -2.30926449     -0.68458124     -2.39889675    
 H   -0.26863220     -1.81854555     -3.22349771    
 H    2.22872117      1.67685968      2.22136458    
 H    1.95829501     -0.81705356     -2.80562134    
 H    2.14174508      1.30970721     -1.54626872    
 H   -2.90005572      0.87241477      2.31767971    
 H   -0.93121047     -2.47845425      0.47717511    
 H    0.10178380      2.43359449     -0.71562222    
 H   -2.99728858     -1.34335388      1.24061404    
 H    1.84928445     -2.05966570      0.32707757    
 H    3.54459009     -0.37150335      1.06329726    
 N    1.60635648     -1.23675044      0.84931232    
