15

    C      0.76502022     -0.57333609     -1.20754294
    C      0.46281235      0.78759239     -1.20790440
    C      0.31206761      1.46840926      0.00000000
    C      0.46281235      0.78759239      1.20790440
    C      0.76502022     -0.57333609      1.20754294
    C      0.91655958     -1.25341023      0.00000000
    H      0.88107738     -1.10105382     -2.14414887
    H      0.34179792      1.31476104     -2.14405525
    H      0.07626763      2.52369294      0.00000000
    H      0.34179792      1.31476104      2.14405525
    H      0.88107738     -1.10105382      2.14414887
    H      1.15341508     -2.30861581      0.00000000
    H     -2.63850373     -1.18253187      0.00000000
    H     -1.91710251      0.13446260      0.00000000
    O     -2.80411939     -0.23793391      0.00000000
