6

 F      0.00000000      0.00000000     -1.88993612   
 C      0.00000000      0.00000000     -0.48156273   
 H     -0.51235996      0.88743348     -0.12780247   
 H     -0.51235996     -0.88743348     -0.12780247   
 H      1.02471992      0.00000000     -0.12780247   
Cl      0.00000000      0.00000000      2.75490626   
