 17

C        1.405731        0.000000        0.4
C        0.702865       -1.217399        0.4
C       -0.702865       -1.217399        0.4
C       -1.405731        0.000000        0.4
C       -0.702865        1.217399        0.4
C        0.702865        1.217399        0.4
C        0.000000        0.000000       -3.800000
H        2.500941        0.000000        0.4
H        1.250470       -2.165878        0.4
H       -1.250470       -2.165878        0.4
H       -2.500941        0.000000        0.4
H       -1.250470        2.165878        0.4
H        1.250470        2.165878        0.4
H        0.000000        0.000000       -2.700497
H        1.036621        0.000000       -4.166500
H       -0.518311        0.897740       -4.166500
H       -0.518311       -0.897740       -4.166500
 
 
 
