24

 N    2.01135924     -1.21320765      0.19492378    
 N    1.37688895      0.83974563      1.02762691    
 N   -2.01135924      1.21320765      0.19492378    
 N   -1.37688895     -0.83974563      1.02762691    
 H    1.72728775      0.99084689     -2.31901467    
 H    1.05180428      1.38622331      1.81636257    
 H    2.12946419     -2.20150530      0.34980452    
 H    2.29752142     -1.39105962     -1.85265535    
 H   -2.29752142      1.39105962     -1.85265535    
 H   -1.72728775     -0.99084689     -2.31901467    
 H   -1.05180428     -1.38622331      1.81636257    
 H   -2.12946419      2.20150530      0.34980452    
 C    2.02570819     -0.69717987     -1.07141223    
 C   -2.02570819      0.69717987     -1.07141223    
 C    1.30896084      1.45753443     -0.22759804    
 C   -1.71452306     -0.59196526     -1.31949849    
 C    1.64599138     -0.48521144      1.31171808    
 C   -1.30896084     -1.45753443     -0.22759804    
 C    1.71452306      0.59196526     -1.31949849    
 C   -1.64599138      0.48521144      1.31171808    
 O    1.56110938     -0.97180640      2.42279771    
 O   -0.92059285     -2.61108703     -0.33305479    
 O   -1.56110938      0.97180640      2.42279771    
 O    0.92059285      2.61108703     -0.33305479    
