6

C      0.00000000      0.66240695      0.00000000    
C      0.00000000     -0.66240695      0.00000000    
H      0.92199393      1.23058091      0.00000000    
H      0.92199393     -1.23058091      0.00000000    
H     -0.92199393      1.23058091      0.00000000    
H     -0.92199393     -1.23058091      0.00000000    
